81689726
  -OEChem-04092409243D

 23 24  0     0  0  0  0  0  0999 V2000
   -0.7969   -2.1535    0.4557 Cl  0  0  0  0  0  0  0  0  0  0  0  0
   -3.7578   -1.4112    0.3245 O   0  0  0  0  0  0  0  0  0  0  0  0
   -1.7640    1.5257   -0.3177 N   0  0  0  0  0  0  0  0  0  0  0  0
    4.3151   -0.2578    0.0401 N   0  0  0  0  0  0  0  0  0  0  0  0
   -4.4925    0.7113   -0.1378 N   0  0  0  0  0  0  0  0  0  0  0  0
    0.1380    0.4028   -0.0864 C   0  0  0  0  0  0  0  0  0  0  0  0
   -2.1064    0.2275   -0.0427 C   0  0  0  0  0  0  0  0  0  0  0  0
   -0.9424   -0.4935    0.1059 C   0  0  0  0  0  0  0  0  0  0  0  0
    1.5553    0.1787   -0.0435 C   0  0  0  0  0  0  0  0  0  0  0  0
   -0.3989    1.6443   -0.3468 C   0  0  0  0  0  0  0  0  0  0  0  0
    2.3432    0.8654    0.8737 C   0  0  0  0  0  0  0  0  0  0  0  0
    2.1458   -0.7262   -0.9187 C   0  0  0  0  0  0  0  0  0  0  0  0
   -3.4612   -0.2204    0.0558 C   0  0  0  0  0  0  0  0  0  0  0  0
    3.7057    0.6137    0.8750 C   0  0  0  0  0  0  0  0  0  0  0  0
    3.5171   -0.9069   -0.8372 C   0  0  0  0  0  0  0  0  0  0  0  0
    0.0588    2.6028   -0.5523 H   0  0  0  0  0  0  0  0  0  0  0  0
   -2.4087    2.2872   -0.4768 H   0  0  0  0  0  0  0  0  0  0  0  0
    1.9230    1.5766    1.5778 H   0  0  0  0  0  0  0  0  0  0  0  0
    1.5690   -1.2782   -1.6540 H   0  0  0  0  0  0  0  0  0  0  0  0
    4.3639    1.1226    1.5715 H   0  0  0  0  0  0  0  0  0  0  0  0
    4.0263   -1.6002   -1.4985 H   0  0  0  0  0  0  0  0  0  0  0  0
   -4.3310    1.6893   -0.3512 H   0  0  0  0  0  0  0  0  0  0  0  0
   -5.4626    0.4218   -0.0675 H   0  0  0  0  0  0  0  0  0  0  0  0
  1  8  1  0  0  0  0
  2 13  2  0  0  0  0
  3  7  1  0  0  0  0
  3 10  1  0  0  0  0
  3 17  1  0  0  0  0
  4 14  2  0  0  0  0
  4 15  1  0  0  0  0
  5 13  1  0  0  0  0
  5 22  1  0  0  0  0
  5 23  1  0  0  0  0
  6  8  1  0  0  0  0
  6  9  1  0  0  0  0
  6 10  2  0  0  0  0
  7  8  2  0  0  0  0
  7 13  1  0  0  0  0
  9 11  2  0  0  0  0
  9 12  1  0  0  0  0
 10 16  1  0  0  0  0
 11 14  1  0  0  0  0
 11 18  1  0  0  0  0
 12 15  2  0  0  0  0
 12 19  1  0  0  0  0
 14 20  1  0  0  0  0
 15 21  1  0  0  0  0
M  END
> <PUBCHEM_COMPOUND_CID>
81689726

> <PUBCHEM_CONFORMER_RMSD>
0.6

> <PUBCHEM_CONFORMER_DIVERSEORDER>
1
4
2
3

> <PUBCHEM_MMFF94_PARTIAL_CHARGES>
23
1 -0.12
10 -0.3
11 -0.15
12 -0.15
13 0.71
14 0.16
15 0.16
16 0.15
17 0.27
18 0.15
19 0.15
2 -0.57
20 0.15
21 0.15
22 0.37
23 0.37
3 0.03
4 -0.62
5 -0.8
6 -0.05
7 -0.24
8 0.12
9 0.05

> <PUBCHEM_EFFECTIVE_ROTOR_COUNT>
2

> <PUBCHEM_PHARMACOPHORE_FEATURES>
7
1 2 acceptor
1 3 cation
1 3 donor
1 4 acceptor
1 5 donor
5 3 6 7 8 10 rings
6 4 9 11 12 14 15 rings

> <PUBCHEM_HEAVY_ATOM_COUNT>
15

> <PUBCHEM_ATOM_DEF_STEREO_COUNT>
0

> <PUBCHEM_ATOM_UDEF_STEREO_COUNT>
0

> <PUBCHEM_BOND_DEF_STEREO_COUNT>
0

> <PUBCHEM_BOND_UDEF_STEREO_COUNT>
0

> <PUBCHEM_ISOTOPIC_ATOM_COUNT>
0

> <PUBCHEM_COMPONENT_COUNT>
1

> <PUBCHEM_CACTVS_TAUTO_COUNT>
11

> <PUBCHEM_CONFORMER_ID>
04DE7C7E00000001

> <PUBCHEM_MMFF94_ENERGY>
30.8348

> <PUBCHEM_FEATURE_SELFOVERLAP>
35.524

> <PUBCHEM_SHAPE_FINGERPRINT>
10608611 8 18271801311586170216
11132069 177 18409730664412990643
11401426 45 18408880737756392149
11471102 20 17775845709815052640
11543360 7 14346079779968653259
12032990 46 18410016554478990003
12119455 92 17560796628273476879
12236239 1 16877662353397489664
13296908 3 18411982481232465333
13538477 17 17023191573366505258
13581323 91 18260543429219322586
13675066 3 18342177795384124129
14115302 16 17603874433077448118
14252887 29 18272097105682912010
14993402 34 17240206533894514390
15219456 202 18202843249326842708
15375358 24 18341610442751718130
16945 1 18187367631470889541
17844478 74 18272652329137984200
18175812 5 18272932738730450269
18186145 218 18341613681157072353
19026448 5 15285357323407806525
19049666 15 18128257779383049812
19141452 34 18130508621746517735
200 152 17203603774852757381
20201158 50 18202004317754938342
20279233 1 18342460339369971470
20281407 28 18410863152414588944
20510252 161 18341892956979074752
20528008 55 18272649064857019402
20645476 183 16732994153458766875
20645477 70 17632011944712115887
22485316 2 18412261731268579519
22854114 59 17775000215374702152
23048698 100 15554448509334465938
23402539 116 18410001148262526950
23532345 42 18336264638570858500
23557571 272 18339083679422296540
23559900 14 18410858746500998878
26918003 58 17988922262473249266
2748010 2 18192150399767177847
43471831 8 18115020797277271227
474 4 14763194918119331058
5104073 3 18412825802213591330
57812782 119 18272932708686693548
69090 78 18060132154637315879
7364860 26 18194688287669694684
77492 1 16805324370862000900
8809292 202 18411140255584415570
9709674 26 18342181093682169926

> <PUBCHEM_SHAPE_MULTIPOLES>
289.75
7.59
1.62
0.85
0.76
0.37
0.01
0.42
0.27
0.63
0.07
-0.56
0.04
0.82

> <PUBCHEM_SHAPE_SELFOVERLAP>
624.45

> <PUBCHEM_SHAPE_VOLUME>
161.2

> <PUBCHEM_COORDINATE_TYPE>
2
5
10

$$$$
